I"ä/Users/zahran/Documents/Flatiron/Module%202/Rails/REST/rails-dynamic-request-readme-web-012918/app/assets/javascripts/application.js?type=application/javascript&id=c1e23d53701755afec3f2f1bd911e0d3e86642da59d14906e82782b8f55d59f5:ET