I"å/Users/zahran/Documents/Flatiron/Module%202/Rails/REST/rails-dynamic-request-readme-web-012918/app/assets/stylesheets/application.css?type=text/css&pipeline=self&id=6010f5ae2353fcd27ecf4a6245b2cd5b0b30eec47ec6c545939be4df7a1116d5:ET