I"ò/Users/zahran/Documents/Flatiron/Module%202/Rails/REST/rails-dynamic-request-readme-web-012918/app/assets/javascripts/application.js?type=application/javascript&pipeline=self&id=c0e82f564e6ef3abb4a175d02bc47e0fa06966dc220ba85b91c565607bb3747c:ET