I"×/Users/zahran/Documents/Flatiron/Module%202/Rails/REST/rails-dynamic-request-readme-web-012918/app/assets/stylesheets/application.css?type=text/css&id=d84fa0165e83ba08d0c1118da4c971f8bac3e918560b8d781b0c06d6e32bb5ff:ET