[o:Set:
@hash}I"environment-version:ETTI"environment-paths;TTI"rails-env;TTI">processors:type=text/css&file_type=text/css&pipeline=self;TTI"“file-digest:///Users/zahran/Documents/Flatiron/Module%202/Rails/REST/rails-dynamic-request-readme-web-012918/app/assets/stylesheets/application.css;TTI"ƒfile-digest:///Users/zahran/Documents/Flatiron/Module%202/Rails/REST/rails-dynamic-request-readme-web-012918/app/assets/stylesheets;TTF